<?xml version="1.0" encoding="UTF-8"?>

<!-- generated on 05/13/20 12:04:26 by Eclipse SUMO netedit Version 1.4.0
<configuration xmlns:xsi="http://www.w3.org/2001/XMLSchema-instance" xsi:noNamespaceSchemaLocation="http://sumo.dlr.de/xsd/netconvertConfiguration.xsd">

    <input>
        <sumo-net-file value="C:\Users\hp-PC\Desktop\Sumofiles\final\xml\junction.net.xml"/>
    </input>

    <output>
        <output-file value="C:\Users\hp-PC\Desktop\Sumofiles\final\xml\junction.net.xml"/>
    </output>

    <processing>
        <geometry.min-radius.fix.railways value="false"/>
        <geometry.max-grade.fix value="false"/>
        <offset.disable-normalization value="true"/>
        <lefthand value="false"/>
    </processing>

    <junctions>
        <no-turnarounds value="true"/>
        <junctions.corner-detail value="5"/>
        <junctions.limit-turn-speed value="5.5"/>
        <rectangular-lane-cut value="false"/>
    </junctions>

    <pedestrian>
        <walkingareas value="false"/>
    </pedestrian>

    <report>
        <aggregate-warnings value="5"/>
    </report>

</configuration>
-->

<net version="1.3" junctionCornerDetail="5" limitTurnSpeed="5.50" xmlns:xsi="http://www.w3.org/2001/XMLSchema-instance" xsi:noNamespaceSchemaLocation="http://sumo.dlr.de/xsd/net_file.xsd">

    <location netOffset="0.00,0.00" convBoundary="-200.00,-100.00,0.00,100.00" origBoundary="-10000000000.00,-10000000000.00,10000000000.00,10000000000.00" projParameter="!"/>

    <edge id=":junc_0" function="internal">
        <lane id=":junc_0_0" index="0" speed="6.51" length="9.03" shape="-101.60,7.20 -101.95,4.75 -103.00,3.00 -104.75,1.95 -107.20,1.60"/>
    </edge>
    <edge id=":junc_1" function="internal">
        <lane id=":junc_1_0" index="0" speed="13.89" length="14.40" shape="-101.60,7.20 -101.60,-7.20"/>
    </edge>
    <edge id=":junc_2" function="internal">
        <lane id=":junc_2_0" index="0" speed="8.00" length="5.93" shape="-101.60,7.20 -101.05,3.35 -100.00,1.60"/>
    </edge>
    <edge id=":junc_12" function="internal">
        <lane id=":junc_12_0" index="0" speed="8.00" length="8.26" shape="-100.00,1.60 -99.40,0.60 -96.65,-1.05 -92.80,-1.60"/>
    </edge>
    <edge id=":junc_3" function="internal">
        <lane id=":junc_3_0" index="0" speed="6.51" length="9.03" shape="-92.80,1.60 -95.25,1.95 -97.00,3.00 -98.05,4.75 -98.40,7.20"/>
    </edge>
    <edge id=":junc_4" function="internal">
        <lane id=":junc_4_0" index="0" speed="13.89" length="14.40" shape="-92.80,1.60 -107.20,1.60"/>
    </edge>
    <edge id=":junc_5" function="internal">
        <lane id=":junc_5_0" index="0" speed="8.00" length="5.93" shape="-92.80,1.60 -96.65,1.05 -98.40,-0.00"/>
    </edge>
    <edge id=":junc_13" function="internal">
        <lane id=":junc_13_0" index="0" speed="8.00" length="8.26" shape="-98.40,-0.00 -99.40,-0.60 -101.05,-3.35 -101.60,-7.20"/>
    </edge>
    <edge id=":junc_6" function="internal">
        <lane id=":junc_6_0" index="0" speed="6.51" length="9.03" shape="-98.40,-7.20 -98.05,-4.75 -97.00,-3.00 -95.25,-1.95 -92.80,-1.60"/>
    </edge>
    <edge id=":junc_7" function="internal">
        <lane id=":junc_7_0" index="0" speed="13.89" length="14.40" shape="-98.40,-7.20 -98.40,7.20"/>
    </edge>
    <edge id=":junc_8" function="internal">
        <lane id=":junc_8_0" index="0" speed="8.00" length="5.93" shape="-98.40,-7.20 -98.95,-3.35 -100.00,-1.60"/>
    </edge>
    <edge id=":junc_14" function="internal">
        <lane id=":junc_14_0" index="0" speed="8.00" length="8.26" shape="-100.00,-1.60 -100.60,-0.60 -103.35,1.05 -107.20,1.60"/>
    </edge>
    <edge id=":junc_9" function="internal">
        <lane id=":junc_9_0" index="0" speed="6.51" length="9.03" shape="-107.20,-1.60 -104.75,-1.95 -103.00,-3.00 -101.95,-4.75 -101.60,-7.20"/>
    </edge>
    <edge id=":junc_10" function="internal">
        <lane id=":junc_10_0" index="0" speed="13.89" length="14.40" shape="-107.20,-1.60 -92.80,-1.60"/>
    </edge>
    <edge id=":junc_11" function="internal">
        <lane id=":junc_11_0" index="0" speed="8.00" length="5.93" shape="-107.20,-1.60 -103.35,-1.05 -101.60,0.00"/>
    </edge>
    <edge id=":junc_15" function="internal">
        <lane id=":junc_15_0" index="0" speed="8.00" length="8.26" shape="-101.60,0.00 -100.60,0.60 -98.95,3.35 -98.40,7.20"/>
    </edge>

    <edge id="juncn1" from="junc" to="n1" priority="-1">
        <lane id="juncn1_0" index="0" speed="13.89" length="92.80" shape="-107.20,1.60 -200.00,1.60"/>
    </edge>
    <edge id="juncn2" from="junc" to="n2" priority="-1">
        <lane id="juncn2_0" index="0" speed="13.89" length="92.80" shape="-101.60,-7.20 -101.60,-100.00"/>
    </edge>
    <edge id="juncn3" from="junc" to="n3" priority="-1">
        <lane id="juncn3_0" index="0" speed="13.89" length="92.80" shape="-92.80,-1.60 0.00,-1.60"/>
    </edge>
    <edge id="juncn4" from="junc" to="n4" priority="-1">
        <lane id="juncn4_0" index="0" speed="13.89" length="92.80" shape="-98.40,7.20 -98.40,100.00"/>
    </edge>
    <edge id="n1junc" from="n1" to="junc" priority="-1">
        <lane id="n1junc_0" index="0" speed="13.89" length="92.80" shape="-200.00,-1.60 -107.20,-1.60"/>
    </edge>
    <edge id="n2junc" from="n2" to="junc" priority="-1">
        <lane id="n2junc_0" index="0" speed="13.89" length="92.80" shape="-98.40,-100.00 -98.40,-7.20"/>
    </edge>
    <edge id="n3junc" from="n3" to="junc" priority="-1">
        <lane id="n3junc_0" index="0" speed="13.89" length="92.80" shape="0.00,1.60 -92.80,1.60"/>
    </edge>
    <edge id="n4junc" from="n4" to="junc" priority="-1">
        <lane id="n4junc_0" index="0" speed="13.89" length="92.80" shape="-101.60,100.00 -101.60,7.20"/>
    </edge>

    <tlLogic id="junc" type="static" programID="0" offset="0">
        <phase duration="42" state="GGgrrrGGgrrr"/>
        <phase duration="3"  state="yyyrrryyyrrr"/>
        <phase duration="42" state="rrrGGgrrrGGg"/>
        <phase duration="3"  state="rrryyyrrryyy"/>
    </tlLogic>

    <junction id="junc" type="traffic_light" x="-100.00" y="0.00" incLanes="n4junc_0 n3junc_0 n2junc_0 n1junc_0" intLanes=":junc_0_0 :junc_1_0 :junc_12_0 :junc_3_0 :junc_4_0 :junc_13_0 :junc_6_0 :junc_7_0 :junc_14_0 :junc_9_0 :junc_10_0 :junc_15_0" shape="-103.20,7.20 -96.80,7.20 -96.36,4.98 -95.80,4.20 -95.02,3.64 -94.02,3.31 -92.80,3.20 -92.80,-3.20 -95.02,-3.64 -95.80,-4.20 -96.36,-4.98 -96.69,-5.98 -96.80,-7.20 -103.20,-7.20 -103.64,-4.98 -104.20,-4.20 -104.98,-3.64 -105.98,-3.31 -107.20,-3.20 -107.20,3.20 -104.98,3.64 -104.20,4.20 -103.64,4.98 -103.31,5.98">
        <request index="0"  response="000000000000" foes="000100010000" cont="0"/>
        <request index="1"  response="100000100000" foes="111100110000" cont="0"/>
        <request index="2"  response="100011100000" foes="110011110000" cont="1"/>
        <request index="3"  response="000010000000" foes="100010000000" cont="0"/>
        <request index="4"  response="000110000111" foes="100110000111" cont="0"/>
        <request index="5"  response="011110000110" foes="011110000110" cont="1"/>
        <request index="6"  response="000000000000" foes="010000000100" cont="0"/>
        <request index="7"  response="100000100000" foes="110000111100" cont="0"/>
        <request index="8"  response="100000100011" foes="110000110011" cont="1"/>
        <request index="9"  response="000000000010" foes="000000100010" cont="0"/>
        <request index="10" response="000111000110" foes="000111100110" cont="0"/>
        <request index="11" response="000110011110" foes="000110011110" cont="1"/>
    </junction>
    <junction id="n1" type="dead_end" x="-200.00" y="0.00" incLanes="juncn1_0" intLanes="" shape="-200.00,0.00 -200.00,3.20 -200.00,0.00"/>
    <junction id="n2" type="dead_end" x="-100.00" y="-100.00" incLanes="juncn2_0" intLanes="" shape="-100.00,-100.00 -103.20,-100.00 -100.00,-100.00"/>
    <junction id="n3" type="dead_end" x="0.00" y="0.00" incLanes="juncn3_0" intLanes="" shape="0.00,0.00 0.00,-3.20 0.00,0.00"/>
    <junction id="n4" type="dead_end" x="-100.00" y="100.00" incLanes="juncn4_0" intLanes="" shape="-100.00,100.00 -96.80,100.00 -100.00,100.00"/>

    <junction id=":junc_12_0" type="internal" x="-100.00" y="1.60" incLanes=":junc_2_0 n2junc_0" intLanes=":junc_4_0 :junc_5_0 :junc_6_0 :junc_7_0 :junc_10_0 :junc_11_0"/>
    <junction id=":junc_13_0" type="internal" x="-98.40" y="-0.00" incLanes=":junc_5_0 n1junc_0" intLanes=":junc_1_0 :junc_2_0 :junc_7_0 :junc_8_0 :junc_9_0 :junc_10_0"/>
    <junction id=":junc_14_0" type="internal" x="-100.00" y="-1.60" incLanes=":junc_8_0 n4junc_0" intLanes=":junc_0_0 :junc_1_0 :junc_4_0 :junc_5_0 :junc_10_0 :junc_11_0"/>
    <junction id=":junc_15_0" type="internal" x="-101.60" y="0.00" incLanes=":junc_11_0 n3junc_0" intLanes=":junc_1_0 :junc_2_0 :junc_3_0 :junc_4_0 :junc_7_0 :junc_8_0"/>

    <connection from="n1junc" to="juncn2" fromLane="0" toLane="0" via=":junc_9_0" tl="junc" linkIndex="9" dir="r" state="o"/>
    <connection from="n1junc" to="juncn3" fromLane="0" toLane="0" via=":junc_10_0" tl="junc" linkIndex="10" dir="s" state="o"/>
    <connection from="n1junc" to="juncn4" fromLane="0" toLane="0" via=":junc_11_0" tl="junc" linkIndex="11" dir="l" state="o"/>
    <connection from="n2junc" to="juncn3" fromLane="0" toLane="0" via=":junc_6_0" tl="junc" linkIndex="6" dir="r" state="O"/>
    <connection from="n2junc" to="juncn4" fromLane="0" toLane="0" via=":junc_7_0" tl="junc" linkIndex="7" dir="s" state="O"/>
    <connection from="n2junc" to="juncn1" fromLane="0" toLane="0" via=":junc_8_0" tl="junc" linkIndex="8" dir="l" state="o"/>
    <connection from="n3junc" to="juncn4" fromLane="0" toLane="0" via=":junc_3_0" tl="junc" linkIndex="3" dir="r" state="o"/>
    <connection from="n3junc" to="juncn1" fromLane="0" toLane="0" via=":junc_4_0" tl="junc" linkIndex="4" dir="s" state="o"/>
    <connection from="n3junc" to="juncn2" fromLane="0" toLane="0" via=":junc_5_0" tl="junc" linkIndex="5" dir="l" state="o"/>
    <connection from="n4junc" to="juncn1" fromLane="0" toLane="0" via=":junc_0_0" tl="junc" linkIndex="0" dir="r" state="O"/>
    <connection from="n4junc" to="juncn2" fromLane="0" toLane="0" via=":junc_1_0" tl="junc" linkIndex="1" dir="s" state="O"/>
    <connection from="n4junc" to="juncn3" fromLane="0" toLane="0" via=":junc_2_0" tl="junc" linkIndex="2" dir="l" state="o"/>

    <connection from=":junc_0" to="juncn1" fromLane="0" toLane="0" dir="r" state="M"/>
    <connection from=":junc_1" to="juncn2" fromLane="0" toLane="0" dir="s" state="M"/>
    <connection from=":junc_2" to="juncn3" fromLane="0" toLane="0" via=":junc_12_0" dir="l" state="m"/>
    <connection from=":junc_12" to="juncn3" fromLane="0" toLane="0" dir="l" state="M"/>
    <connection from=":junc_3" to="juncn4" fromLane="0" toLane="0" dir="r" state="M"/>
    <connection from=":junc_4" to="juncn1" fromLane="0" toLane="0" dir="s" state="M"/>
    <connection from=":junc_5" to="juncn2" fromLane="0" toLane="0" via=":junc_13_0" dir="l" state="m"/>
    <connection from=":junc_13" to="juncn2" fromLane="0" toLane="0" dir="l" state="M"/>
    <connection from=":junc_6" to="juncn3" fromLane="0" toLane="0" dir="r" state="M"/>
    <connection from=":junc_7" to="juncn4" fromLane="0" toLane="0" dir="s" state="M"/>
    <connection from=":junc_8" to="juncn1" fromLane="0" toLane="0" via=":junc_14_0" dir="l" state="m"/>
    <connection from=":junc_14" to="juncn1" fromLane="0" toLane="0" dir="l" state="M"/>
    <connection from=":junc_9" to="juncn2" fromLane="0" toLane="0" dir="r" state="M"/>
    <connection from=":junc_10" to="juncn3" fromLane="0" toLane="0" dir="s" state="M"/>
    <connection from=":junc_11" to="juncn4" fromLane="0" toLane="0" via=":junc_15_0" dir="l" state="m"/>
    <connection from=":junc_15" to="juncn4" fromLane="0" toLane="0" dir="l" state="M"/>

</net>
