<routes><vType accel="4.0" decel="4.5" id="car" length="4" maxSpeed="100" sigma="0.5" /><vehicle depart="4" guiShape="emergency" id="1" type="car"><route edges="n2junc juncn3" /></vehicle><vehicle depart="8" guiShape="emergency" id="2" type="car"><route edges="n2junc juncn3" /></vehicle><vehicle depart="12" guiShape="emergency" id="3" type="car"><route edges="n2junc juncn4" /></vehicle><vehicle depart="16" guiShape="emergency" id="4" type="car"><route edges="n2junc juncn4" /></vehicle><vehicle depart="20" guiShape="emergency" id="5" type="car"><route edges="n4junc juncn2" /></vehicle><vehicle depart="24" guiShape="emergency" id="6" type="car"><route edges="n4junc juncn3" /></vehicle><vehicle depart="28" guiShape="emergency" id="7" type="car"><route edges="n2junc juncn1" /></vehicle><vehicle depart="32" guiShape="emergency" id="8" type="car"><route edges="n2junc juncn1" /></vehicle><vehicle depart="36" guiShape="emergency" id="9" type="car"><route edges="n2junc juncn4" /></vehicle><vehicle depart="40" guiShape="emergency" id="10" type="car"><route edges="n2junc juncn4" /></vehicle><vehicle depart="44" guiShape="emergency" id="11" type="car"><route edges="n2junc juncn1" /></vehicle><vehicle depart="48" guiShape="emergency" id="12" type="car"><route edges="n4junc juncn2" /></vehicle><vehicle depart="52" guiShape="emergency" id="13" type="car"><route edges="n4junc juncn2" /></vehicle><vehicle depart="56" guiShape="emergency" id="14" type="car"><route edges="n4junc juncn2" /></vehicle><vehicle depart="60" guiShape="emergency" id="15" type="car"><route edges="n4junc juncn1" /></vehicle><vehicle depart="64" guiShape="emergency" id="16" type="car"><route edges="n4junc juncn1" /></vehicle><vehicle depart="68" guiShape="emergency" id="17" type="car"><route edges="n4junc juncn2" /></vehicle><vehicle depart="72" guiShape="emergency" id="18" type="car"><route edges="n2junc juncn4" /></vehicle><vehicle depart="76" guiShape="emergency" id="19" type="car"><route edges="n4junc juncn2" /></vehicle><vehicle depart="80" guiShape="emergency" id="20" type="car"><route edges="n4junc juncn3" /></vehicle><vehicle depart="84" guiShape="emergency" id="21" type="car"><route edges="n2junc juncn3" /></vehicle><vehicle depart="88" guiShape="emergency" id="22" type="car"><route edges="n2junc juncn4" /></vehicle><vehicle depart="92" guiShape="emergency" id="23" type="car"><route edges="n2junc juncn1" /></vehicle><vehicle depart="96" guiShape="emergency" id="24" type="car"><route edges="n2junc juncn1" /></vehicle><vehicle depart="100" guiShape="emergency" id="25" type="car"><route edges="n2junc juncn1" /></vehicle><vehicle depart="104" guiShape="emergency" id="26" type="car"><route edges="n4junc juncn1" /></vehicle><vehicle depart="108" guiShape="emergency" id="27" type="car"><route edges="n4junc juncn1" /></vehicle><vehicle depart="112" guiShape="emergency" id="28" type="car"><route edges="n2junc juncn3" /></vehicle><vehicle depart="116" guiShape="emergency" id="29" type="car"><route edges="n2junc juncn1" /></vehicle><vehicle depart="120" guiShape="emergency" id="30" type="car"><route edges="n4junc juncn2" /></vehicle><vehicle depart="124" guiShape="emergency" id="31" type="car"><route edges="n4junc juncn3" /></vehicle><vehicle depart="128" guiShape="emergency" id="32" type="car"><route edges="n4junc juncn3" /></vehicle><vehicle depart="132" guiShape="emergency" id="33" type="car"><route edges="n4junc juncn2" /></vehicle><vehicle depart="136" guiShape="emergency" id="34" type="car"><route edges="n2junc juncn4" /></vehicle><vehicle depart="140" guiShape="emergency" id="35" type="car"><route edges="n4junc juncn2" /></vehicle><vehicle depart="144" guiShape="emergency" id="36" type="car"><route edges="n4junc juncn3" /></vehicle><vehicle depart="148" guiShape="emergency" id="37" type="car"><route edges="n4junc juncn2" /></vehicle><vehicle depart="152" guiShape="emergency" id="38" type="car"><route edges="n4junc juncn3" /></vehicle><vehicle depart="156" guiShape="emergency" id="39" type="car"><route edges="n2junc juncn4" /></vehicle><vehicle depart="160" guiShape="emergency" id="40" type="car"><route edges="n4junc juncn2" /></vehicle><vehicle depart="164" guiShape="emergency" id="41" type="car"><route edges="n4junc juncn3" /></vehicle><vehicle depart="168" guiShape="emergency" id="42" type="car"><route edges="n4junc juncn3" /></vehicle><vehicle depart="172" guiShape="emergency" id="43" type="car"><route edges="n2junc juncn4" /></vehicle><vehicle depart="176" guiShape="emergency" id="44" type="car"><route edges="n2junc juncn3" /></vehicle><vehicle depart="180" guiShape="emergency" id="45" type="car"><route edges="n4junc juncn3" /></vehicle><vehicle depart="184" guiShape="emergency" id="46" type="car"><route edges="n2junc juncn3" /></vehicle><vehicle depart="188" guiShape="emergency" id="47" type="car"><route edges="n2junc juncn1" /></vehicle><vehicle depart="192" guiShape="emergency" id="48" type="car"><route edges="n2junc juncn1" /></vehicle><vehicle depart="196" guiShape="emergency" id="49" type="car"><route edges="n2junc juncn4" /></vehicle><vehicle depart="200" guiShape="emergency" id="50" type="car"><route edges="n1junc juncn2" /></vehicle><vehicle depart="204" guiShape="emergency" id="51" type="car"><route edges="n1junc juncn4" /></vehicle><vehicle depart="208" guiShape="emergency" id="52" type="car"><route edges="n3junc juncn1" /></vehicle><vehicle depart="212" guiShape="emergency" id="53" type="car"><route edges="n1junc juncn4" /></vehicle><vehicle depart="216" guiShape="emergency" id="54" type="car"><route edges="n1junc juncn3" /></vehicle><vehicle depart="220" guiShape="emergency" id="55" type="car"><route edges="n1junc juncn2" /></vehicle><vehicle depart="224" guiShape="emergency" id="56" type="car"><route edges="n1junc juncn2" /></vehicle><vehicle depart="228" guiShape="emergency" id="57" type="car"><route edges="n3junc juncn4" /></vehicle><vehicle depart="232" guiShape="emergency" id="58" type="car"><route edges="n3junc juncn4" /></vehicle><vehicle depart="236" guiShape="emergency" id="59" type="car"><route edges="n3junc juncn4" /></vehicle><vehicle depart="240" guiShape="emergency" id="60" type="car"><route edges="n1junc juncn2" /></vehicle><vehicle depart="244" guiShape="emergency" id="61" type="car"><route edges="n1junc juncn4" /></vehicle><vehicle depart="248" guiShape="emergency" id="62" type="car"><route edges="n3junc juncn4" /></vehicle><vehicle depart="252" guiShape="emergency" id="63" type="car"><route edges="n3junc juncn1" /></vehicle><vehicle depart="256" guiShape="emergency" id="64" type="car"><route edges="n3junc juncn1" /></vehicle><vehicle depart="260" guiShape="emergency" id="65" type="car"><route edges="n3junc juncn2" /></vehicle><vehicle depart="264" guiShape="emergency" id="66" type="car"><route edges="n3junc juncn4" /></vehicle><vehicle depart="268" guiShape="emergency" id="67" type="car"><route edges="n1junc juncn2" /></vehicle><vehicle depart="272" guiShape="emergency" id="68" type="car"><route edges="n3junc juncn1" /></vehicle><vehicle depart="276" guiShape="emergency" id="69" type="car"><route edges="n1junc juncn3" /></vehicle><vehicle depart="280" guiShape="emergency" id="70" type="car"><route edges="n1junc juncn4" /></vehicle><vehicle depart="284" guiShape="emergency" id="71" type="car"><route edges="n1junc juncn2" /></vehicle><vehicle depart="288" guiShape="emergency" id="72" type="car"><route edges="n1junc juncn3" /></vehicle><vehicle depart="292" guiShape="emergency" id="73" type="car"><route edges="n1junc juncn2" /></vehicle><vehicle depart="296" guiShape="emergency" id="74" type="car"><route edges="n1junc juncn3" /></vehicle><vehicle depart="300" guiShape="emergency" id="75" type="car"><route edges="n1junc juncn4" /></vehicle><vehicle depart="304" guiShape="emergency" id="76" type="car"><route edges="n1junc juncn3" /></vehicle><vehicle depart="308" guiShape="emergency" id="77" type="car"><route edges="n1junc juncn3" /></vehicle><vehicle depart="312" guiShape="emergency" id="78" type="car"><route edges="n1junc juncn3" /></vehicle><vehicle depart="316" guiShape="emergency" id="79" type="car"><route edges="n1junc juncn3" /></vehicle><vehicle depart="320" guiShape="emergency" id="80" type="car"><route edges="n1junc juncn3" /></vehicle><vehicle depart="324" guiShape="emergency" id="81" type="car"><route edges="n1junc juncn4" /></vehicle><vehicle depart="328" guiShape="emergency" id="82" type="car"><route edges="n1junc juncn4" /></vehicle><vehicle depart="332" guiShape="emergency" id="83" type="car"><route edges="n1junc juncn3" /></vehicle><vehicle depart="336" guiShape="emergency" id="84" type="car"><route edges="n3junc juncn2" /></vehicle><vehicle depart="340" guiShape="emergency" id="85" type="car"><route edges="n1junc juncn3" /></vehicle><vehicle depart="344" guiShape="emergency" id="86" type="car"><route edges="n3junc juncn1" /></vehicle><vehicle depart="348" guiShape="emergency" id="87" type="car"><route edges="n3junc juncn2" /></vehicle><vehicle depart="352" guiShape="emergency" id="88" type="car"><route edges="n3junc juncn4" /></vehicle><vehicle depart="356" guiShape="emergency" id="89" type="car"><route edges="n3junc juncn2" /></vehicle><vehicle depart="360" guiShape="emergency" id="90" type="car"><route edges="n3junc juncn1" /></vehicle><vehicle depart="364" guiShape="emergency" id="91" type="car"><route edges="n1junc juncn4" /></vehicle><vehicle depart="368" guiShape="emergency" id="92" type="car"><route edges="n3junc juncn2" /></vehicle><vehicle depart="372" guiShape="emergency" id="93" type="car"><route edges="n1junc juncn3" /></vehicle><vehicle depart="376" guiShape="emergency" id="94" type="car"><route edges="n3junc juncn1" /></vehicle><vehicle depart="380" guiShape="emergency" id="95" type="car"><route edges="n3junc juncn2" /></vehicle><vehicle depart="384" guiShape="emergency" id="96" type="car"><route edges="n1junc juncn3" /></vehicle><vehicle depart="388" guiShape="emergency" id="97" type="car"><route edges="n3junc juncn2" /></vehicle><vehicle depart="392" guiShape="emergency" id="98" type="car"><route edges="n3junc juncn1" /></vehicle><vehicle depart="396" guiShape="emergency" id="99" type="car"><route edges="n3junc juncn4" /></vehicle><vehicle depart="300" guiShape="emergency" id="100" type="car"><route edges="n1junc juncn3" /></vehicle><vehicle depart="303" guiShape="emergency" id="101" type="car"><route edges="n4junc juncn3" /></vehicle><vehicle depart="306" guiShape="emergency" id="102" type="car"><route edges="n3junc juncn2" /></vehicle><vehicle depart="309" guiShape="emergency" id="103" type="car"><route edges="n4junc juncn2" /></vehicle><vehicle depart="312" guiShape="emergency" id="104" type="car"><route edges="n3junc juncn1" /></vehicle><vehicle depart="315" guiShape="emergency" id="105" type="car"><route edges="n2junc juncn1" /></vehicle><vehicle depart="318" guiShape="emergency" id="106" type="car"><route edges="n3junc juncn1" /></vehicle><vehicle depart="321" guiShape="emergency" id="107" type="car"><route edges="n3junc juncn1" /></vehicle><vehicle depart="324" guiShape="emergency" id="108" type="car"><route edges="n2junc juncn4" /></vehicle><vehicle depart="327" guiShape="emergency" id="109" type="car"><route edges="n3junc juncn2" /></vehicle><vehicle depart="330" guiShape="emergency" id="110" type="car"><route edges="n1junc juncn2" /></vehicle><vehicle depart="333" guiShape="emergency" id="111" type="car"><route edges="n2junc juncn3" /></vehicle><vehicle depart="336" guiShape="emergency" id="112" type="car"><route edges="n4junc juncn1" /></vehicle><vehicle depart="339" guiShape="emergency" id="113" type="car"><route edges="n3junc juncn1" /></vehicle><vehicle depart="342" guiShape="emergency" id="114" type="car"><route edges="n4junc juncn2" /></vehicle><vehicle depart="345" guiShape="emergency" id="115" type="car"><route edges="n2junc juncn4" /></vehicle><vehicle depart="348" guiShape="emergency" id="116" type="car"><route edges="n2junc juncn4" /></vehicle><vehicle depart="351" guiShape="emergency" id="117" type="car"><route edges="n1junc juncn4" /></vehicle><vehicle depart="354" guiShape="emergency" id="118" type="car"><route edges="n4junc juncn2" /></vehicle><vehicle depart="357" guiShape="emergency" id="119" type="car"><route edges="n4junc juncn2" /></vehicle><vehicle depart="360" guiShape="emergency" id="120" type="car"><route edges="n2junc juncn1" /></vehicle><vehicle depart="363" guiShape="emergency" id="121" type="car"><route edges="n1junc juncn2" /></vehicle><vehicle depart="366" guiShape="emergency" id="122" type="car"><route edges="n3junc juncn4" /></vehicle><vehicle depart="369" guiShape="emergency" id="123" type="car"><route edges="n4junc juncn2" /></vehicle><vehicle depart="372" guiShape="emergency" id="124" type="car"><route edges="n1junc juncn2" /></vehicle><vehicle depart="375" guiShape="emergency" id="125" type="car"><route edges="n3junc juncn2" /></vehicle><vehicle depart="378" guiShape="emergency" id="126" type="car"><route edges="n1junc juncn4" /></vehicle><vehicle depart="381" guiShape="emergency" id="127" type="car"><route edges="n1junc juncn2" /></vehicle><vehicle depart="384" guiShape="emergency" id="128" type="car"><route edges="n2junc juncn4" /></vehicle><vehicle depart="387" guiShape="emergency" id="129" type="car"><route edges="n4junc juncn1" /></vehicle><vehicle depart="390" guiShape="emergency" id="130" type="car"><route edges="n2junc juncn4" /></vehicle><vehicle depart="393" guiShape="emergency" id="131" type="car"><route edges="n2junc juncn4" /></vehicle><vehicle depart="396" guiShape="emergency" id="132" type="car"><route edges="n1junc juncn2" /></vehicle><vehicle depart="399" guiShape="emergency" id="133" type="car"><route edges="n3junc juncn4" /></vehicle><vehicle depart="402" guiShape="emergency" id="134" type="car"><route edges="n2junc juncn1" /></vehicle><vehicle depart="405" guiShape="emergency" id="135" type="car"><route edges="n1junc juncn2" /></vehicle><vehicle depart="408" guiShape="emergency" id="136" type="car"><route edges="n4junc juncn3" /></vehicle><vehicle depart="411" guiShape="emergency" id="137" type="car"><route edges="n4junc juncn3" /></vehicle><vehicle depart="414" guiShape="emergency" id="138" type="car"><route edges="n3junc juncn2" /></vehicle><vehicle depart="417" guiShape="emergency" id="139" type="car"><route edges="n4junc juncn2" /></vehicle><vehicle depart="420" guiShape="emergency" id="140" type="car"><route edges="n2junc juncn1" /></vehicle><vehicle depart="423" guiShape="emergency" id="141" type="car"><route edges="n4junc juncn1" /></vehicle><vehicle depart="426" guiShape="emergency" id="142" type="car"><route edges="n1junc juncn2" /></vehicle><vehicle depart="429" guiShape="emergency" id="143" type="car"><route edges="n3junc juncn2" /></vehicle><vehicle depart="432" guiShape="emergency" id="144" type="car"><route edges="n3junc juncn2" /></vehicle><vehicle depart="435" guiShape="emergency" id="145" type="car"><route edges="n2junc juncn4" /></vehicle><vehicle depart="438" guiShape="emergency" id="146" type="car"><route edges="n3junc juncn2" /></vehicle><vehicle depart="441" guiShape="emergency" id="147" type="car"><route edges="n1junc juncn3" /></vehicle><vehicle depart="444" guiShape="emergency" id="148" type="car"><route edges="n1junc juncn4" /></vehicle><vehicle depart="447" guiShape="emergency" id="149" type="car"><route edges="n1junc juncn3" /></vehicle><vehicle depart="450" guiShape="emergency" id="150" type="car"><route edges="n2junc juncn1" /></vehicle><vehicle depart="453" guiShape="emergency" id="151" type="car"><route edges="n4junc juncn1" /></vehicle><vehicle depart="456" guiShape="emergency" id="152" type="car"><route edges="n1junc juncn2" /></vehicle><vehicle depart="459" guiShape="emergency" id="153" type="car"><route edges="n2junc juncn4" /></vehicle><vehicle depart="462" guiShape="emergency" id="154" type="car"><route edges="n1junc juncn4" /></vehicle><vehicle depart="465" guiShape="emergency" id="155" type="car"><route edges="n4junc juncn1" /></vehicle><vehicle depart="468" guiShape="emergency" id="156" type="car"><route edges="n3junc juncn1" /></vehicle><vehicle depart="471" guiShape="emergency" id="157" type="car"><route edges="n2junc juncn4" /></vehicle><vehicle depart="474" guiShape="emergency" id="158" type="car"><route edges="n2junc juncn1" /></vehicle><vehicle depart="477" guiShape="emergency" id="159" type="car"><route edges="n3junc juncn1" /></vehicle><vehicle depart="480" guiShape="emergency" id="160" type="car"><route edges="n4junc juncn1" /></vehicle><vehicle depart="483" guiShape="emergency" id="161" type="car"><route edges="n2junc juncn3" /></vehicle><vehicle depart="486" guiShape="emergency" id="162" type="car"><route edges="n2junc juncn3" /></vehicle><vehicle depart="489" guiShape="emergency" id="163" type="car"><route edges="n3junc juncn1" /></vehicle><vehicle depart="492" guiShape="emergency" id="164" type="car"><route edges="n3junc juncn1" /></vehicle><vehicle depart="495" guiShape="emergency" id="165" type="car"><route edges="n1junc juncn2" /></vehicle><vehicle depart="498" guiShape="emergency" id="166" type="car"><route edges="n1junc juncn3" /></vehicle><vehicle depart="501" guiShape="emergency" id="167" type="car"><route edges="n1junc juncn2" /></vehicle><vehicle depart="504" guiShape="emergency" id="168" type="car"><route edges="n4junc juncn3" /></vehicle><vehicle depart="507" guiShape="emergency" id="169" type="car"><route edges="n1junc juncn3" /></vehicle><vehicle depart="510" guiShape="emergency" id="170" type="car"><route edges="n4junc juncn1" /></vehicle><vehicle depart="513" guiShape="emergency" id="171" type="car"><route edges="n2junc juncn4" /></vehicle><vehicle depart="516" guiShape="emergency" id="172" type="car"><route edges="n1junc juncn2" /></vehicle><vehicle depart="519" guiShape="emergency" id="173" type="car"><route edges="n3junc juncn4" /></vehicle><vehicle depart="522" guiShape="emergency" id="174" type="car"><route edges="n4junc juncn2" /></vehicle><vehicle depart="525" guiShape="emergency" id="175" type="car"><route edges="n3junc juncn2" /></vehicle><vehicle depart="528" guiShape="emergency" id="176" type="car"><route edges="n2junc juncn3" /></vehicle><vehicle depart="531" guiShape="emergency" id="177" type="car"><route edges="n2junc juncn4" /></vehicle><vehicle depart="534" guiShape="emergency" id="178" type="car"><route edges="n4junc juncn3" /></vehicle><vehicle depart="537" guiShape="emergency" id="179" type="car"><route edges="n4junc juncn2" /></vehicle><vehicle depart="540" guiShape="emergency" id="180" type="car"><route edges="n4junc juncn2" /></vehicle><vehicle depart="543" guiShape="emergency" id="181" type="car"><route edges="n4junc juncn3" /></vehicle><vehicle depart="546" guiShape="emergency" id="182" type="car"><route edges="n3junc juncn4" /></vehicle><vehicle depart="549" guiShape="emergency" id="183" type="car"><route edges="n1junc juncn3" /></vehicle><vehicle depart="552" guiShape="emergency" id="184" type="car"><route edges="n4junc juncn1" /></vehicle><vehicle depart="555" guiShape="emergency" id="185" type="car"><route edges="n4junc juncn3" /></vehicle><vehicle depart="558" guiShape="emergency" id="186" type="car"><route edges="n2junc juncn3" /></vehicle><vehicle depart="561" guiShape="emergency" id="187" type="car"><route edges="n3junc juncn2" /></vehicle><vehicle depart="564" guiShape="emergency" id="188" type="car"><route edges="n3junc juncn1" /></vehicle><vehicle depart="567" guiShape="emergency" id="189" type="car"><route edges="n3junc juncn2" /></vehicle><vehicle depart="570" guiShape="emergency" id="190" type="car"><route edges="n4junc juncn1" /></vehicle><vehicle depart="573" guiShape="emergency" id="191" type="car"><route edges="n1junc juncn4" /></vehicle><vehicle depart="576" guiShape="emergency" id="192" type="car"><route edges="n2junc juncn1" /></vehicle><vehicle depart="579" guiShape="emergency" id="193" type="car"><route edges="n3junc juncn1" /></vehicle><vehicle depart="582" guiShape="emergency" id="194" type="car"><route edges="n2junc juncn4" /></vehicle><vehicle depart="585" guiShape="emergency" id="195" type="car"><route edges="n2junc juncn1" /></vehicle><vehicle depart="588" guiShape="emergency" id="196" type="car"><route edges="n2junc juncn1" /></vehicle><vehicle depart="591" guiShape="emergency" id="197" type="car"><route edges="n4junc juncn2" /></vehicle><vehicle depart="594" guiShape="emergency" id="198" type="car"><route edges="n2junc juncn3" /></vehicle><vehicle depart="597" guiShape="emergency" id="199" type="car"><route edges="n4junc juncn1" /></vehicle></routes>